Version 4.1
SHEET 1 4020 880
WIRE 112 -176 -112 -176
WIRE 1872 -96 1264 -96
WIRE 112 -80 112 -176
WIRE -256 -16 -320 -16
WIRE -80 -16 -256 -16
WIRE 112 -16 16 -16
WIRE 160 -16 112 -16
WIRE 272 -16 160 -16
WIRE 464 -16 272 -16
WIRE 656 -16 544 -16
WIRE 768 -16 656 -16
WIRE 864 -16 768 -16
WIRE 1040 -16 864 -16
WIRE 1200 -16 1040 -16
WIRE 1264 -16 1264 -96
WIRE 1264 -16 1200 -16
WIRE 1520 -16 1264 -16
WIRE 0 32 -80 32
WIRE -112 64 -112 -176
WIRE -80 64 -80 32
WIRE -80 64 -112 64
WIRE 272 64 272 -16
WIRE 448 64 272 64
WIRE 768 64 768 -16
WIRE 1520 64 1520 -16
WIRE -80 80 -80 64
WIRE -80 80 -176 80
WIRE -48 80 -80 80
WIRE 64 80 32 80
WIRE 160 80 160 -16
WIRE 160 80 144 80
WIRE -320 96 -320 -16
WIRE 272 96 272 64
WIRE 1040 96 1040 -16
WIRE -80 128 -80 80
WIRE 1200 160 1200 -16
WIRE 1280 160 1200 160
WIRE 1440 160 1360 160
WIRE -176 192 -176 80
WIRE 448 192 448 144
WIRE 1440 224 1440 160
WIRE 1440 224 1408 224
WIRE 1520 224 1440 224
WIRE 272 256 272 160
WIRE 448 256 272 256
WIRE 1040 272 1040 160
WIRE 1056 272 1040 272
WIRE 1152 272 1136 272
WIRE 1232 272 1152 272
WIRE 1296 272 1232 272
WIRE 1344 272 1296 272
WIRE 1520 272 1520 224
WIRE 272 288 272 256
WIRE 768 288 768 128
WIRE -176 304 -176 272
WIRE -80 304 -80 192
WIRE -80 304 -176 304
WIRE -80 336 -80 304
WIRE 1776 336 1584 336
WIRE 1584 352 1584 336
WIRE 1040 384 1040 272
WIRE 1520 400 1520 352
WIRE 160 416 160 80
WIRE 160 416 -80 416
WIRE 656 432 656 -16
WIRE 1872 448 1872 -96
WIRE 1872 448 1584 448
WIRE 1152 560 1152 272
WIRE 1776 560 1776 336
WIRE 1776 560 1152 560
WIRE 656 576 656 512
WIRE 752 576 656 576
WIRE 864 592 864 -16
WIRE 656 624 656 576
WIRE 752 640 752 576
WIRE 800 640 752 640
WIRE 1296 656 1296 272
WIRE 1296 656 928 656
FLAG -320 176 0
FLAG -256 -80 0
FLAG 272 288 0
FLAG 768 288 0
FLAG 1520 144 0
FLAG 1040 464 0
FLAG 1408 320 0
FLAG 1232 336 0
FLAG 656 704 0
FLAG 864 848 0
SYMBOL voltage -320 80 R0
WINDOW 123 0 0 Left 0
WINDOW 39 0 0 Left 0
SYMATTR InstName V1
SYMATTR Value 24
SYMBOL cap -272 -80 R0
SYMATTR InstName C1
SYMATTR Value 100µ
SYMBOL zener 288 160 R180
WINDOW 0 24 64 Left 2
WINDOW 3 24 0 Left 2
SYMATTR InstName D1
SYMATTR Value SB360
SYMBOL res 432 48 R0
SYMATTR InstName R_snub
SYMATTR Value 10
SYMBOL cap 432 192 R0
SYMATTR InstName C_snub
SYMATTR Value 10n
SYMBOL ind 448 0 R270
WINDOW 0 32 56 VTop 2
WINDOW 3 5 56 VBottom 2
SYMATTR InstName L1
SYMATTR Value 100µ
SYMATTR SpiceLine Rser=1m
SYMBOL cap 752 64 R0
SYMATTR InstName C2
SYMATTR Value 94µ
SYMBOL res 1504 48 R0
SYMATTR InstName Rout
SYMATTR Value 2.5
SYMBOL zener 1056 160 R180
WINDOW 0 24 64 Left 2
WINDOW 3 24 0 Left 2
SYMATTR InstName D2
SYMATTR Value 1N4736A
SYMBOL res 1024 368 R0
SYMATTR InstName R2
SYMATTR Value 1k
SYMBOL npn 1344 224 R0
SYMATTR InstName Q1
SYMATTR Value 2N3904
SYMBOL pnp 1520 352 R0
SYMATTR InstName Q2
SYMATTR Value 2N3906
SYMBOL nmos -80 32 R270
SYMATTR InstName M1
SYMATTR Value IRF7853
SYMBOL diode -96 128 R0
SYMATTR InstName D3
SYMATTR Value 1N4148
SYMBOL voltage -80 320 R0
WINDOW 123 0 0 Left 0
WINDOW 39 0 0 Left 0
SYMATTR InstName PWM
SYMATTR Value PULSE(0 10 0 20n 20n 2.35u 10u)
SYMBOL res -192 176 R0
SYMATTR InstName R_gate
SYMATTR Value 10
SYMBOL ind -64 96 R270
WINDOW 0 32 56 VTop 2
WINDOW 3 5 56 VBottom 2
SYMATTR InstName L2
SYMATTR Value 10n
SYMATTR SpiceLine Rser=1m
SYMBOL res 160 64 R90
WINDOW 0 0 56 VBottom 2
WINDOW 3 32 56 VTop 2
SYMATTR InstName R5
SYMATTR Value 1k
SYMBOL cap 128 -16 R180
WINDOW 0 24 56 Left 2
WINDOW 3 24 8 Left 2
SYMATTR InstName C4
SYMATTR Value 2.2n
SYMBOL res 1376 144 R90
WINDOW 0 0 56 VBottom 2
WINDOW 3 32 56 VTop 2
SYMATTR InstName R4
SYMATTR Value 10k
SYMBOL res 1504 256 R0
SYMATTR InstName R6
SYMATTR Value 47
SYMBOL res 1152 256 R90
WINDOW 0 0 56 VBottom 2
WINDOW 3 32 56 VTop 2
SYMATTR InstName R1
SYMATTR Value 300
SYMBOL cap 1216 272 R0
SYMATTR InstName C3
SYMATTR Value 10µ
SYMBOL res 640 416 R0
SYMATTR InstName R_fixed
SYMATTR Value 9.1k
SYMBOL res 640 608 R0
SYMATTR InstName Thermistor
SYMATTR Value 10k
SYMBOL Comparators\\LT6700-1 864 720 R0
SYMATTR InstName U1
TEXT 2464 -80 Left 2 !.model IRF7853 VDMOS(Vds=100 Ron=18m Qg=30n Vto=4.0 Cgs=1.5n Cgdmax=0.5n Cgdmin=0.01n Cjo=0.3n Is=2p mfg=Infineon)
TEXT 2472 -32 Left 2 !.model SB360 D(Is=20n Rs=0.028 N=1.08 Cjo=110p M=0.43 Vj=0.58 Eg=0.69 Xti=2 BV=60 IBV=1m Tt=18n)
TEXT 2480 16 Left 2 !.model 1N4736A D(IS=1.004U RS=0.5875 N=1.233 EG=1.11 XTI=3.0 BV=6.8 IBV=37M CJO=195P VJ=0.750 M=0.3333)
TEXT -352 568 Left 2 !.tran 0 5m 0 50n
TEXT 2536 288 Left 2 !.measure TRAN Pdiode_avg AVG -V(N004)*I(D1) FROM 4m TO 5m\n.measure TRAN Pin_avg AVG V(N003)*-I(V1) FROM 4m TO 5m\n.meas TRAN Pout_avg AVG V(N002)*I(Rout) FROM 4m TO 5m\n.measure TRAN Pmos_avg AVG V(N003,N004)*Id(M1) FROM 4m TO 5m
